<?xml version="1.0" encoding="utf-8"?><html xmlns="http://www.w3.org/1999/xhtml" xmlns:epub="http://www.idpf.org/2007/ops" xmlns:mml="http://www.w3.org/1998/Math/MathML" xmlns:xlink="http://www.w3.org/1999/xlink" xml:lang="en">
   <head>
      <meta http-equiv="Content-Type" content="text/html; charset=utf-8" />
      <link rel="stylesheet" type="text/css" href="../Styles/HTWK-OAVerlag.css" />
      <title>Literaturverzeichnis</title>
   </head>
   <body>
      <div class="bibliography" id="b_7890123456789_reflist_001">
         <h1>Literaturverzeichnis</h1>
         <h2>Literatur</h2>
         <ol>
            <li>
               <ol>
                  <li id="b_7890123456789_ref_001">
                     			Aigner, D., Bollrich, G.: Handbuch der Hydraulik für
                     			Wasserbau und Wasserwirtschaft, Beuth Verlag GmbH Berlin Wien Zürich,
                     			2015
                     		</li>
                  <li id="b_7890123456789_ref_002">
                     			SAS IP, Inc.: ANYSY Help Viewer, Version 15.0,
                     			2013
                     		</li>
                  <li id="b_7890123456789_ref_003">
                     			ANSYS Inc.: ANSYS CFX-Solver Modeling Guide, Release
                     			15.0, 2013
                     		</li>
                  <li id="b_7890123456789_ref_004">
                     			ANSYS Inc.: ANSYS CFX-Solver Theory Guide, Release
                     			15.0, 2013
                     		</li>
                  <li id="b_7890123456789_ref_005">
                     			Blind, H.: Wasserbauten aus Beton, Handbuch für
                     			Beton-, Stahlbeton- und Spannbetonbau, Ernst, Verlag für Architektur
                     			u. techn. Wiss., Berlin, 1987
                     		</li>
                  <li id="b_7890123456789_ref_006">
                     			Bollrich, G.: Technische Hydromechanik 1, Verlag für
                     			Bauwesen GmbH, 1996
                     		</li>
               </ol>
            </li>
         </ol>
         <h2>Internetquellen</h2>
         <ol>
            <li>
               <ol>
                  <li id="b_7890123456789_ref_007">
                     				1a-Studi (2019): Kostenbeispiele für Korrekturlesen &amp; Lektorat. 
                     				URL: https://www.1a-studi.de/korrekturlesen-lektorat-preise (Aufruf am 08.11.2019)
                     			</li>
                  <li id="b_7890123456789_ref_008">
                     				acadoo (2019): Wissenschaftliches Lektorat. 
                     				URL: https://wissenschaftlicheslektorat.com/ (Aufruf am 08.11.2019)
                     			</li>
                  <li id="b_7890123456789_ref_009">
                     				Akademischeslektorat.com (2019): Wissenschaftliches Lektorat für Dissertation. 
                     				URL: http://www.akademischeslektorat.com/wissenschaftliches-lektorat-fuer-dissertation/
                     (Aufruf am 08.11.2019)
                     			</li>
                  <li id="b_7890123456789_ref_010">
                     				Albers, S. et al. (2007): Methodik der empirischen Forschung. 
                     				Gabler Verlag, 2. Auflage, Wiesbaden. ISBN: 9783834904690
                     			</li>
                  <li id="b_7890123456789_ref_011">
                     				Allweyer, T. (2015): BPMN 2.0 – Business Process Model and Notation: 
                     				Einführung in den Standard für die Geschäftsprozessmodellierung. BoD – Books on
                     Demand, 
                     				Norderstedt. ISBN: 9783738626711
                     			</li>
               </ol>
            </li>
         </ol>
      </div>
   </body>
</html>